running example: Mon Sep 30 14:11:24 CEST 2024

setting up project...


running mesher...


 **********************************************
 *** Specfem 2-D Mesher - MPI version       ***
 **********************************************

 Running Git version of the code corresponding to 98741db1a0c8082ca57364f5b17ea95df6cbf1c2
 dating 2023-12-21 00:21:37 +0100

 Reading the parameter file...

 Title of the simulation: Beaver hole detection with 30 Hz ricker

 Receiver lines:
   Nb of line sets =            1

 Materials:
   Nb of solid, fluid or porous materials =            3

 --------
 Material #           1  isotropic
 rho,cp,cs   =    1.0000000000000000        343.00000000000000        0.0000000000000000     
 Qkappa, Qmu =    10.000000000000000        10.000000000000000     
 Material is fluid
 --------
 Material #           2  isotropic
 rho,cp,cs   =    1600.0000000000000        1600.0000000000000        500.00000000000000     
 Qkappa, Qmu =    10.000000000000000        10.000000000000000     
 Material is solid
 --------
 Material #           3  isotropic
 rho,cp,cs   =    1000.0000000000000        1480.0000000000000        0.0000000000000000     
 Qkappa, Qmu =    10.000000000000000        10.000000000000000     
 Material is fluid
 --------

 Parameter file successfully read 


 Mesh from external meshing:
   Reading data from external mesh file: MESH/Mesh_project
     NGNOD =            4
     Total number of spectral elements   :        4728
     Total number of nodal points        :        4871

   Reading materials from external mesh file: MESH/Material_project

 PML mesh elements:
   Total number of PML elements =            0

 The mesh contains         4728  elements

 Control elements have            4  nodes

 Reading in SOURCE file...

 Source           1
   Position xs, zs =   0.50000000000000000        0.0000000000000000     

   Source type (1=force, 2=moment tensor):            1
   Force source:
   Angle of the source (deg) =    0.0000000000000000     

   Time function type (1=Ricker, 2=First derivative, 3=Gaussian, 4=Dirac, 5=Heaviside, 6,7=ocean type, 8=Read from file, 9=burst, 10=Sinusoidal, 11=Ormsby):           1
   Ricker wavelet (second-derivative):
   Frequency, delay =    6000.0000000000000        0.0000000000000000     
   Multiplying factor  =    10000000000.000000     

 all sources are okay

 Normals to surface not needed

 Node coordinates:
   Reading node coords from external mesh file: MESH/Nodes_project
     node coords: X min/max =    0.0000000000000000      /   10.000000000000000     
                  Z min/max =   -3.0000000000000000      /   1.0000000000000000     

 Mesh surfaces:
   Reading acoustic surface from external mesh file: MESH/Surf_free_project
   Total number of surface elements         :          100
   Total number of acoustic surface elements:          100

   Reading absorbing surface from external mesh file: MESH/Surf_abs_project
     Total number of absorbing surface elements:          184


 Mesh dimensions: 
   Min and max value of X in the grid =    0.0000000000000000        10.000000000000000     
   Min and max value of Z in the grid =   -3.0000000000000000        1.0000000000000000     

 Mesh partitioning:
   decomposing mesh using NPROC =            1

 Graph construction:
   graph adjacency done

 Coupled interfaces:
 nedges_coupled (acoustic/elastic)     =          200
 nedges_coupled (acoustic/poroelastic) =            0
 nedges_coupled (poroelastic/elastic)  =            0

 Local numbering:
   NPROC:            1
   number of elements:         4728

 decompose mesh all done

 Absorbing boundaries:
   nedge_bound   :          184
   nelemabs_merge:          184

 Saving databases:
   database file: ./OUTPUT_FILES/Database00000.bin
   slice            0  has number of spectral elements =        4728

   VTK mesh files:
   written file: ./OUTPUT_FILES//mesh_materials.vtk
   written file: ./OUTPUT_FILES//mesh_partition_number.vtk
   done

 creating STATIONS file...

 writing the ./DATA/STATIONS file


 There are           19  receivers

 Target positions (x,z) of the           19  receivers

 Receiver            1  =   0.50000000000000000        0.0000000000000000     
 Receiver            2  =    1.0000000000000000        0.0000000000000000     
 Receiver            3  =    1.5000000000000000        0.0000000000000000     
 Receiver            4  =    2.0000000000000000        0.0000000000000000     
 Receiver            5  =    2.5000000000000000        0.0000000000000000     
 Receiver            6  =    3.0000000000000000        0.0000000000000000     
 Receiver            7  =    3.5000000000000000        0.0000000000000000     
 Receiver            8  =    4.0000000000000000        0.0000000000000000     
 Receiver            9  =    4.5000000000000000        0.0000000000000000     
 Receiver           10  =    5.0000000000000000        0.0000000000000000     
 Receiver           11  =    5.5000000000000000        0.0000000000000000     
 Receiver           12  =    6.0000000000000000        0.0000000000000000     
 Receiver           13  =    6.5000000000000000        0.0000000000000000     
 Receiver           14  =    7.0000000000000000        0.0000000000000000     
 Receiver           15  =    7.5000000000000000        0.0000000000000000     
 Receiver           16  =    8.0000000000000000        0.0000000000000000     
 Receiver           17  =    8.5000000000000000        0.0000000000000000     
 Receiver           18  =    9.0000000000000000        0.0000000000000000     
 Receiver           19  =    9.5000000000000000        0.0000000000000000     

 This will be a serial simulation


running solver...


 **********************************************
 **** Specfem 2-D Solver - MPI version     ****
 **********************************************

 Running Git version of the code corresponding to 98741db1a0c8082ca57364f5b17ea95df6cbf1c2
 dating 2023-12-21 00:21:37 +0100

 There are            1  MPI processes
 Processes are numbered from 0 to            0

 There is a total of            1  slices


 NDIM =            2

 NGLLX =            5
 NGLLZ =            5

 using single precision for the calculations

 smallest and largest possible floating-point numbers are:    1.17549435E-38   3.40282347E+38

 Reading the parameter file...

 Title of the simulation: Beaver hole detection with 30 Hz ricker

 Parameter file successfully read 

 Reading in SOURCE file...

 Source           1
   Position xs, zs =   0.50000000000000000        0.0000000000000000     

   Source type (1=force, 2=moment tensor):            1
   Force source:
   Angle of the source (deg) =    0.0000000000000000     

   Time function type (1=Ricker, 2=First derivative, 3=Gaussian, 4=Dirac, 5=Heaviside, 6,7=ocean type, 8=Read from file, 9=burst, 10=Sinusoidal, 11=Ormsby):           1
   Ricker wavelet (second-derivative):
   Frequency, delay =    6000.0000000000000        0.0000000000000000     
   Multiplying factor  =    10000000000.000000     

 all sources are okay



 -------------------------------------------------------------------------------
 -------------------------------------------------------------------------------
 Program SPECFEM2D: 
 -------------------------------------------------------------------------------
 -------------------------------------------------------------------------------
 Beaver hole detection with 30 Hz ricker
 -------------------------------------------------------------------------------
 -------------------------------------------------------------------------------
 D a t e : 30 - 09 - 2024                                 T i m e  : 14:11:25
 -------------------------------------------------------------------------------
 -------------------------------------------------------------------------------


 C o n t r o l
 =============

     Number of spectral element control nodes. . .(npgeo) =    4871
     Number of space dimensions. . . . . . . . . . (NDIM) =       2


 C o n t r o l
 =============

     Display frequency . . . (NTSTEP_BETWEEN_OUTPUT_INFO) =    300
     Color display . . . . . . . . . . . . . . . (colors) =      1
      == 0     black and white display              
      == 1     color display                        
     Numbered mesh . . . . . . . . . . . . . . .(numbers) =      0
      == 0     do not number the mesh               
      == 1     number the mesh                      


 C o n t r o l
 =============

     Seismograms recording type . . . . . . .(seismotype) = 4
     Angle for first line of receivers. . . . .(anglerec) =   0.00


 C o n t r o l
 =============

     Read external initial field. . . . . .(initialfield) =      F
     Add Bielak conditions (add_Bielak_conditions_bottom) =      F
     Add Bielak conditions .(add_Bielak_conditions_right) =      F
     Add Bielak conditions . .(add_Bielak_conditions_top) =      F
     Add Bielak conditions. .(add_Bielak_conditions_left) =      F
     Attenuation in solid . . .(ATTENUATION_VISCOELASTIC) =      F
     Attenuation in fluid . . (ATTENUATION_VISCOACOUSTIC) =      F
     Save grid in ASCII file or not . (output_grid_ASCII) =      F
     Save a file with total energy or not.(OUTPUT_ENERGY) =      F


 C o n t r o l
 =============

     Vector display type . . . . . . . . .(imagetype_postscript) =      1
     Percentage of cut for vector plots. . . . . . . .(cutsnaps) =   1.00
     Subsampling of velocity model display. (subsamp_postscript) =      1


 I t e r a t i o n s 
 ===================

     Number of time iterations . . . . .(NSTEP) =    5000
     Time step increment. . . . . . . . . .(DT) =   1.000000E-05
     Total simulation duration . . . . . (ttot) =   5.000000E-02


 reading mesh databases:
 reading nodal coordinates...

 -- Spectral Elements --


     Number of spectral elements . . . . . . . . .  (nspec) =   4728
     Number of control nodes per element . . . . . (NGNOD) =      4
     Number of points in X-direction . . . . . . . (NGLLX) =      5
     Number of points in Y-direction . . . . . . . (NGLLZ) =      5
     Number of points per element. . . . . . (NGLLX*NGLLZ) =     25
     Number of points for display . . . . . . (pointsdisp) =      6
     Number of element material sets . . . . . . . (numat) =      3
     Number of acoustic forcing elements (nelem_acforcing) =      0
     Number of acoustic free surf (nelem_acoustic_surface) =    100

 reading attenuation setup...
 reading material properties..


 M a t e r i a l   s e t s :   2 D  (p o r o) e l a s t i c i t y
 ======================================================

     Number of material sets . . . . . . (numat) =     3


     -------------------------------
     -- Acoustic (fluid) material --
     -------------------------------
     Material set number. . . . . . . . (jmat) =     1
     P-wave velocity. . . . . . . . . . . (cp) = 3.43000000E+02
     Mass density. . . . . . . . . . (density) = 1.00000000E+00
     Bulk modulus Kappa . . . . . . . .(kappa) = 1.17649000E+05
     QKappa_attenuation. . . . . . . .(QKappa) = 1.00000000E+01
     Qmu_attenuation. . . . . . . . . . .(Qmu) = 1.00000000E+01



     ----------------------------------------
     -- Elastic (solid) isotropic material --
     ----------------------------------------
     Material set number. . . . . . . . (jmat) =     2
     P-wave velocity. . . . . . . . . . . (cp) = 1.60000000E+03
     S-wave velocity. . . . . . . . . . . (cs) = 5.00000000E+02
     Mass density. . . . . . . . . . (density) = 1.60000000E+03
     Poisson's ratio. . . . . . . . .(poisson) = 4.45887446E-01
     First Lame parameter Lambda. . . (lambda) = 3.29600000E+09
     Second Lame parameter Mu. . . . . . .(mu) = 4.00000000E+08
     Bulk modulus Kappa . . . . . . . .(kappa) = 3.69600000E+09
     Young's modulus E. . . . . . . . .(young) = 1.15821727E+09
     QKappa_attenuation .  . . . . . .(QKappa) = 1.00000000E+01
     Qmu_attenuation . . . . . . . . . . (Qmu) = 1.00000000E+01



     -------------------------------
     -- Acoustic (fluid) material --
     -------------------------------
     Material set number. . . . . . . . (jmat) =     3
     P-wave velocity. . . . . . . . . . . (cp) = 1.48000000E+03
     Mass density. . . . . . . . . . (density) = 1.00000000E+03
     Bulk modulus Kappa . . . . . . . .(kappa) = 2.19040000E+09
     QKappa_attenuation. . . . . . . .(QKappa) = 1.00000000E+01
     Qmu_attenuation. . . . . . . . . . .(Qmu) = 1.00000000E+01

 reading interfaces informations...
   number of interfaces         =            0

 reading absorbing boundary...
   Total number of absorbing elements =          184

   any absorbing boundary flag        =  T
   PML boundary flag                  =  F
   Stacey boundary flag               =  T


 Absorbing boundaries:
   using Stacey absorbing boundary conditions

   Total number of absorbing elements:          184
     nspec_left   =           81
     nspec_right  =           58
     nspec_bottom =           25
     nspec_top    =           20


 reading acoustic forcing...
   acoustic forcing                             =  F
   number of acoustic forcing boundary elements =            0

 reading free surface information...
   number of acoustic free surface boundary elements =          100

   Total number of acoustic free surface elements:          100

 reading coupling surfaces...
   number of fluid-solid edges  =          200
   number of fluid-poro  edges  =            0
   number of solid-poro  edges  =            0

 reading tangential curves...
   number of tangential curve nodes =            0

 reading axial elements...
   number of axial elements     =            0

 done reading mesh databases


 Setting up mesh

 Generating global mesh numbering (fast version)...

 Mesh numbering:
   Total number of elements:         4728

   Total number of acoustic elements           =         1778
   Total number of elastic/visco/poro elements =         2950

 Approximate total number of grid points in the mesh
 (with a few duplicates coming from MPI buffers):        76217

 Approximate number of acoustic degrees of freedom in the mesh:        28662
 Approximate number of elastic degrees of freedom in the mesh:        95110
   (there are 2 degrees of freedom per point for elastic elements)

 Approximate total number of degrees of freedom in the mesh
 (sum of the two values above):       123772

  (for simplicity viscoelastic or poroelastic elements, if any,
   are counted as elastic in the above three estimates;
   in reality they have more degrees of freedom)

 element            1  has a negative Jacobian
 element            2  has a negative Jacobian
 element            3  has a negative Jacobian
 element            4  has a negative Jacobian
 element            5  has a negative Jacobian
 element            6  has a negative Jacobian
 element            7  has a negative Jacobian
 element            8  has a negative Jacobian
 element            9  has a negative Jacobian
 element           10  has a negative Jacobian
 element           11  has a negative Jacobian
 element           12  has a negative Jacobian
 element           13  has a negative Jacobian
 element           14  has a negative Jacobian
 element           15  has a negative Jacobian
 element           16  has a negative Jacobian
 element           17  has a negative Jacobian
 element           18  has a negative Jacobian
 element           19  has a negative Jacobian
 element           20  has a negative Jacobian
 element           21  has a negative Jacobian
 element           22  has a negative Jacobian
 element           23  has a negative Jacobian
 element           24  has a negative Jacobian
 element           25  has a negative Jacobian
 element           26  has a negative Jacobian
 element           27  has a negative Jacobian
 element           28  has a negative Jacobian
 element           29  has a negative Jacobian
 element           30  has a negative Jacobian
 element           31  has a negative Jacobian
 element           32  has a negative Jacobian
 element           33  has a negative Jacobian
 element           34  has a negative Jacobian
 element           35  has a negative Jacobian
 element           36  has a negative Jacobian
 element           37  has a negative Jacobian
 element           38  has a negative Jacobian
 element           39  has a negative Jacobian
 element           40  has a negative Jacobian
 element           41  has a negative Jacobian
 element           42  has a negative Jacobian
 element           43  has a negative Jacobian
 element           44  has a negative Jacobian
 element           45  has a negative Jacobian
 element           46  has a negative Jacobian
 element           47  has a negative Jacobian
 element           48  has a negative Jacobian
 element           49  has a negative Jacobian
 element           50  has a negative Jacobian
 element           51  has a negative Jacobian
 element           52  has a negative Jacobian
 element           53  has a negative Jacobian
 element           54  has a negative Jacobian
 element           55  has a negative Jacobian
 element           56  has a negative Jacobian
 element           57  has a negative Jacobian
 element           58  has a negative Jacobian
 element           59  has a negative Jacobian
 element           60  has a negative Jacobian
 element           61  has a negative Jacobian
 element           62  has a negative Jacobian
 element           63  has a negative Jacobian
 element           64  has a negative Jacobian
 element           65  has a negative Jacobian
 element           66  has a negative Jacobian
 element           67  has a negative Jacobian
 element           68  has a negative Jacobian
 element           69  has a negative Jacobian
 element           70  has a negative Jacobian
 element           71  has a negative Jacobian
 element           72  has a negative Jacobian
 element           73  has a negative Jacobian
 element           74  has a negative Jacobian
 element           75  has a negative Jacobian
 element           76  has a negative Jacobian
 element           77  has a negative Jacobian
 element           78  has a negative Jacobian
 element           79  has a negative Jacobian
 element           80  has a negative Jacobian
 element           81  has a negative Jacobian
 element           82  has a negative Jacobian
 element           83  has a negative Jacobian
 element           84  has a negative Jacobian
 element           85  has a negative Jacobian
 element           86  has a negative Jacobian
 element           87  has a negative Jacobian
 element           88  has a negative Jacobian
 element           89  has a negative Jacobian
 element           90  has a negative Jacobian
 element           91  has a negative Jacobian
 element           92  has a negative Jacobian
 element           93  has a negative Jacobian
 element           94  has a negative Jacobian
 element           95  has a negative Jacobian
 element           96  has a negative Jacobian
 element           97  has a negative Jacobian
 element           98  has a negative Jacobian
 element           99  has a negative Jacobian
 element          100  has a negative Jacobian
 element          101  has a negative Jacobian
 element          102  has a negative Jacobian
 element          103  has a negative Jacobian
 element          104  has a negative Jacobian
 element          105  has a negative Jacobian
 element          106  has a negative Jacobian
 element          107  has a negative Jacobian
 element          108  has a negative Jacobian
 element          109  has a negative Jacobian
 element          110  has a negative Jacobian
 element          111  has a negative Jacobian
 element          112  has a negative Jacobian
 element          113  has a negative Jacobian
 element          114  has a negative Jacobian
 element          115  has a negative Jacobian
 element          116  has a negative Jacobian
 element          117  has a negative Jacobian
 element          118  has a negative Jacobian
 element          119  has a negative Jacobian
 element          120  has a negative Jacobian
 element          121  has a negative Jacobian
 element          122  has a negative Jacobian
 element          123  has a negative Jacobian
 element          124  has a negative Jacobian
 element          125  has a negative Jacobian
 element          126  has a negative Jacobian
 element          127  has a negative Jacobian
 element          128  has a negative Jacobian
 element          129  has a negative Jacobian
 element          130  has a negative Jacobian
 element          131  has a negative Jacobian
 element          132  has a negative Jacobian
 element          133  has a negative Jacobian
 element          134  has a negative Jacobian
 element          135  has a negative Jacobian
 element          136  has a negative Jacobian
 element          137  has a negative Jacobian
 element          138  has a negative Jacobian
 element          139  has a negative Jacobian
 element          140  has a negative Jacobian
 element          141  has a negative Jacobian
 element          142  has a negative Jacobian
 element          143  has a negative Jacobian
 element          144  has a negative Jacobian
 element          145  has a negative Jacobian
 element          146  has a negative Jacobian
 element          147  has a negative Jacobian
 element          148  has a negative Jacobian
 element          149  has a negative Jacobian
 element          150  has a negative Jacobian
 element          151  has a negative Jacobian
 element          152  has a negative Jacobian
 element          153  has a negative Jacobian
 element          154  has a negative Jacobian
 element          155  has a negative Jacobian
 element          156  has a negative Jacobian
 element          157  has a negative Jacobian
 element          158  has a negative Jacobian
 element          159  has a negative Jacobian
 element          160  has a negative Jacobian
 element          161  has a negative Jacobian
 element          162  has a negative Jacobian
 element          163  has a negative Jacobian
 element          164  has a negative Jacobian
 element          165  has a negative Jacobian
 element          166  has a negative Jacobian
 element          167  has a negative Jacobian
 element          168  has a negative Jacobian
 element          169  has a negative Jacobian
 element          170  has a negative Jacobian
 element          171  has a negative Jacobian
 element          172  has a negative Jacobian
 element          173  has a negative Jacobian
 element          174  has a negative Jacobian
 element          175  has a negative Jacobian
 element          176  has a negative Jacobian
 element          177  has a negative Jacobian
 element          178  has a negative Jacobian
 element          179  has a negative Jacobian
 element          180  has a negative Jacobian
 element          181  has a negative Jacobian
 element          182  has a negative Jacobian
 element          183  has a negative Jacobian
 element          184  has a negative Jacobian
 element          185  has a negative Jacobian
 element          186  has a negative Jacobian
 element          187  has a negative Jacobian
 element          188  has a negative Jacobian
 element          189  has a negative Jacobian
 element          190  has a negative Jacobian
 element          191  has a negative Jacobian
 element          192  has a negative Jacobian
 element          193  has a negative Jacobian
 element          194  has a negative Jacobian
 element          195  has a negative Jacobian
 element          196  has a negative Jacobian
 element          197  has a negative Jacobian
 element          198  has a negative Jacobian
 element          199  has a negative Jacobian
 element          200  has a negative Jacobian
 element          201  has a negative Jacobian
 element          202  has a negative Jacobian
 element          203  has a negative Jacobian
 element          204  has a negative Jacobian
 element          205  has a negative Jacobian
 element          206  has a negative Jacobian
 element          207  has a negative Jacobian
 element          208  has a negative Jacobian
 element          209  has a negative Jacobian
 element          210  has a negative Jacobian
 element          211  has a negative Jacobian
 element          212  has a negative Jacobian
 element          213  has a negative Jacobian
 element          214  has a negative Jacobian
 element          215  has a negative Jacobian
 element          216  has a negative Jacobian
 element          217  has a negative Jacobian
 element          218  has a negative Jacobian
 element          219  has a negative Jacobian
 element          220  has a negative Jacobian
 element          221  has a negative Jacobian
 element          222  has a negative Jacobian
 element          223  has a negative Jacobian
 element          224  has a negative Jacobian
 element          225  has a negative Jacobian
 element          226  has a negative Jacobian
 element          227  has a negative Jacobian
 element          228  has a negative Jacobian
 element          229  has a negative Jacobian
 element          230  has a negative Jacobian
 element          231  has a negative Jacobian
 element          232  has a negative Jacobian
 element          233  has a negative Jacobian
 element          234  has a negative Jacobian
 element          235  has a negative Jacobian
 element          236  has a negative Jacobian
 element          237  has a negative Jacobian
 element          238  has a negative Jacobian
 element          239  has a negative Jacobian
 element          240  has a negative Jacobian
 element          241  has a negative Jacobian
 element          242  has a negative Jacobian
 element          243  has a negative Jacobian
 element          244  has a negative Jacobian
 element          245  has a negative Jacobian
 element          246  has a negative Jacobian
 element          247  has a negative Jacobian
 element          248  has a negative Jacobian
 element          249  has a negative Jacobian
 element          250  has a negative Jacobian
 element          251  has a negative Jacobian
 element          252  has a negative Jacobian
 element          253  has a negative Jacobian
 element          254  has a negative Jacobian
 element          255  has a negative Jacobian
 element          256  has a negative Jacobian
 element          257  has a negative Jacobian
 element          258  has a negative Jacobian
 element          259  has a negative Jacobian
 element          260  has a negative Jacobian
 element          261  has a negative Jacobian
 element          262  has a negative Jacobian
 element          263  has a negative Jacobian
 element          264  has a negative Jacobian
 element          265  has a negative Jacobian
 element          266  has a negative Jacobian
 element          267  has a negative Jacobian
 element          268  has a negative Jacobian
 element          269  has a negative Jacobian
 element          270  has a negative Jacobian
 element          271  has a negative Jacobian
 element          272  has a negative Jacobian
 element          273  has a negative Jacobian
 element          274  has a negative Jacobian
 element          275  has a negative Jacobian
 element          276  has a negative Jacobian
 element          277  has a negative Jacobian
 element          278  has a negative Jacobian
 element          279  has a negative Jacobian
 element          280  has a negative Jacobian
 element          281  has a negative Jacobian
 element          282  has a negative Jacobian
 element          283  has a negative Jacobian
 element          284  has a negative Jacobian
 element          285  has a negative Jacobian
 element          286  has a negative Jacobian
 element          287  has a negative Jacobian
 element          288  has a negative Jacobian
 element          289  has a negative Jacobian
 element          290  has a negative Jacobian
 element          291  has a negative Jacobian
 element          292  has a negative Jacobian
 element          293  has a negative Jacobian
 element          294  has a negative Jacobian
 element          295  has a negative Jacobian
 element          296  has a negative Jacobian
 element          297  has a negative Jacobian
 element          298  has a negative Jacobian
 element          299  has a negative Jacobian
 element          300  has a negative Jacobian
 element          301  has a negative Jacobian
 element          302  has a negative Jacobian
 element          303  has a negative Jacobian
 element          304  has a negative Jacobian
 element          305  has a negative Jacobian
 element          306  has a negative Jacobian
 element          307  has a negative Jacobian
 element          308  has a negative Jacobian
 element          309  has a negative Jacobian
 element          310  has a negative Jacobian
 element          311  has a negative Jacobian
 element          312  has a negative Jacobian
 element          313  has a negative Jacobian
 element          314  has a negative Jacobian
 element          315  has a negative Jacobian
 element          316  has a negative Jacobian
 element          317  has a negative Jacobian
 element          318  has a negative Jacobian
 element          319  has a negative Jacobian
 element          320  has a negative Jacobian
 element          321  has a negative Jacobian
 element          322  has a negative Jacobian
 element          323  has a negative Jacobian
 element          324  has a negative Jacobian
 element          325  has a negative Jacobian
 element          326  has a negative Jacobian
 element          327  has a negative Jacobian
 element          328  has a negative Jacobian
 element          329  has a negative Jacobian
 element          330  has a negative Jacobian
 element          331  has a negative Jacobian
 element          332  has a negative Jacobian
 element          333  has a negative Jacobian
 element          334  has a negative Jacobian
 element          335  has a negative Jacobian
 element          336  has a negative Jacobian
 element          337  has a negative Jacobian
 element          338  has a negative Jacobian
 element          339  has a negative Jacobian
 element          340  has a negative Jacobian
 element          341  has a negative Jacobian
 element          342  has a negative Jacobian
 element          343  has a negative Jacobian
 element          344  has a negative Jacobian
 element          345  has a negative Jacobian
 element          346  has a negative Jacobian
 element          347  has a negative Jacobian
 element          348  has a negative Jacobian
 element          349  has a negative Jacobian
 element          350  has a negative Jacobian
 element          351  has a negative Jacobian
 element          352  has a negative Jacobian
 element          353  has a negative Jacobian
 element          354  has a negative Jacobian
 element          355  has a negative Jacobian
 element          356  has a negative Jacobian
 element          357  has a negative Jacobian
 element          358  has a negative Jacobian
 element          359  has a negative Jacobian
 element          360  has a negative Jacobian
 element          361  has a negative Jacobian
 element          362  has a negative Jacobian
 element          363  has a negative Jacobian
 element          364  has a negative Jacobian
 element          365  has a negative Jacobian
 element          366  has a negative Jacobian
 element          367  has a negative Jacobian
 element          368  has a negative Jacobian
 element          369  has a negative Jacobian
 element          370  has a negative Jacobian
 element          371  has a negative Jacobian
 element          372  has a negative Jacobian
 element          373  has a negative Jacobian
 element          374  has a negative Jacobian
 element          375  has a negative Jacobian
 element          376  has a negative Jacobian
 element          377  has a negative Jacobian
 element          378  has a negative Jacobian
 element          379  has a negative Jacobian
 element          380  has a negative Jacobian
 element          381  has a negative Jacobian
 element          382  has a negative Jacobian
 element          383  has a negative Jacobian
 element          384  has a negative Jacobian
 element          385  has a negative Jacobian
 element          386  has a negative Jacobian
 element          387  has a negative Jacobian
 element          388  has a negative Jacobian
 element          389  has a negative Jacobian
 element          390  has a negative Jacobian
 element          391  has a negative Jacobian
 element          392  has a negative Jacobian
 element          393  has a negative Jacobian
 element          394  has a negative Jacobian
 element          395  has a negative Jacobian
 element          396  has a negative Jacobian
 element          397  has a negative Jacobian
 element          398  has a negative Jacobian
 element          399  has a negative Jacobian
 element          400  has a negative Jacobian
 element          401  has a negative Jacobian
 element          402  has a negative Jacobian
 element          403  has a negative Jacobian
 element          404  has a negative Jacobian
 element          405  has a negative Jacobian
 element          406  has a negative Jacobian
 element          407  has a negative Jacobian
 element          408  has a negative Jacobian
 element          409  has a negative Jacobian
 element          410  has a negative Jacobian
 element          411  has a negative Jacobian
 element          412  has a negative Jacobian
 element          413  has a negative Jacobian
 element          414  has a negative Jacobian
 element          415  has a negative Jacobian
 element          416  has a negative Jacobian
 element          417  has a negative Jacobian
 element          418  has a negative Jacobian
 element          419  has a negative Jacobian
 element          420  has a negative Jacobian
 element          421  has a negative Jacobian
 element          422  has a negative Jacobian
 element          423  has a negative Jacobian
 element          424  has a negative Jacobian
 element          425  has a negative Jacobian
 element          426  has a negative Jacobian
 element          427  has a negative Jacobian
 element          428  has a negative Jacobian
 element          429  has a negative Jacobian
 element          430  has a negative Jacobian
 element          431  has a negative Jacobian
 element          432  has a negative Jacobian
 element          433  has a negative Jacobian
 element          434  has a negative Jacobian
 element          435  has a negative Jacobian
 element          436  has a negative Jacobian
 element          437  has a negative Jacobian
 element          438  has a negative Jacobian
 element          439  has a negative Jacobian
 element          440  has a negative Jacobian
 element          441  has a negative Jacobian
 element          442  has a negative Jacobian
 element          443  has a negative Jacobian
 element          444  has a negative Jacobian
 element          445  has a negative Jacobian
 element          446  has a negative Jacobian
 element          447  has a negative Jacobian
 element          448  has a negative Jacobian
 element          449  has a negative Jacobian
 element          450  has a negative Jacobian
 element          451  has a negative Jacobian
 element          452  has a negative Jacobian
 element          453  has a negative Jacobian
 element          454  has a negative Jacobian
 element          455  has a negative Jacobian
 element          456  has a negative Jacobian
 element          457  has a negative Jacobian
 element          458  has a negative Jacobian
 element          459  has a negative Jacobian
 element          460  has a negative Jacobian
 element          461  has a negative Jacobian
 element          462  has a negative Jacobian
 element          463  has a negative Jacobian
 element          464  has a negative Jacobian
 element          465  has a negative Jacobian
 element          466  has a negative Jacobian
 element          467  has a negative Jacobian
 element          468  has a negative Jacobian
 element          469  has a negative Jacobian
 element          470  has a negative Jacobian
 element          471  has a negative Jacobian
 element          472  has a negative Jacobian
 element          473  has a negative Jacobian
 element          474  has a negative Jacobian
 element          475  has a negative Jacobian
 element          476  has a negative Jacobian
 element          477  has a negative Jacobian
 element          478  has a negative Jacobian
 element          479  has a negative Jacobian
 element          480  has a negative Jacobian
 element          481  has a negative Jacobian
 element          482  has a negative Jacobian
 element          483  has a negative Jacobian
 element          484  has a negative Jacobian
 element          485  has a negative Jacobian
 element          486  has a negative Jacobian
 element          487  has a negative Jacobian
 element          488  has a negative Jacobian
 element          489  has a negative Jacobian
 element          490  has a negative Jacobian
 element          491  has a negative Jacobian
 element          492  has a negative Jacobian
 element          493  has a negative Jacobian
 element          494  has a negative Jacobian
 element          495  has a negative Jacobian
 element          496  has a negative Jacobian
 element          497  has a negative Jacobian
 element          498  has a negative Jacobian
 element          499  has a negative Jacobian
 element          500  has a negative Jacobian
 element          501  has a negative Jacobian
 element          502  has a negative Jacobian
 element          503  has a negative Jacobian
 element          504  has a negative Jacobian
 element          505  has a negative Jacobian
 element          506  has a negative Jacobian
 element          507  has a negative Jacobian
 element          508  has a negative Jacobian
 element          509  has a negative Jacobian
 element          510  has a negative Jacobian
 element          511  has a negative Jacobian
 element          512  has a negative Jacobian
 element          513  has a negative Jacobian
 element          514  has a negative Jacobian
 element          515  has a negative Jacobian
 element          516  has a negative Jacobian
 element          517  has a negative Jacobian
 element          518  has a negative Jacobian
 element          519  has a negative Jacobian
 element          520  has a negative Jacobian
 element          521  has a negative Jacobian
 element          522  has a negative Jacobian
 element          523  has a negative Jacobian
 element          524  has a negative Jacobian
 element          525  has a negative Jacobian
 element          526  has a negative Jacobian
 element          527  has a negative Jacobian
 element          528  has a negative Jacobian
 element          529  has a negative Jacobian
 element          530  has a negative Jacobian
 element          531  has a negative Jacobian
 element          532  has a negative Jacobian
 element          533  has a negative Jacobian
 element          534  has a negative Jacobian
 element          535  has a negative Jacobian
 element          536  has a negative Jacobian
 element          537  has a negative Jacobian
 element          538  has a negative Jacobian
 element          539  has a negative Jacobian
 element          540  has a negative Jacobian
 element          541  has a negative Jacobian
 element          542  has a negative Jacobian
 element          543  has a negative Jacobian
 element          544  has a negative Jacobian
 element          545  has a negative Jacobian
 element          546  has a negative Jacobian
 element          547  has a negative Jacobian
 element          548  has a negative Jacobian
 element          549  has a negative Jacobian
 element          550  has a negative Jacobian
 element          551  has a negative Jacobian
 element          552  has a negative Jacobian
 element          553  has a negative Jacobian
 element          554  has a negative Jacobian
 element          555  has a negative Jacobian
 element          556  has a negative Jacobian
 element          557  has a negative Jacobian
 element          558  has a negative Jacobian
 element          559  has a negative Jacobian
 element          560  has a negative Jacobian
 element          561  has a negative Jacobian
 element          562  has a negative Jacobian
 element          563  has a negative Jacobian
 element          564  has a negative Jacobian
 element          565  has a negative Jacobian
 element          566  has a negative Jacobian
 element          567  has a negative Jacobian
 element          568  has a negative Jacobian
 element          569  has a negative Jacobian
 element          570  has a negative Jacobian
 element          571  has a negative Jacobian
 element          572  has a negative Jacobian
 element          573  has a negative Jacobian
 element          574  has a negative Jacobian
 element          575  has a negative Jacobian
 element          576  has a negative Jacobian
 element          577  has a negative Jacobian
 element          578  has a negative Jacobian
 element          579  has a negative Jacobian
 element          580  has a negative Jacobian
 element          581  has a negative Jacobian
 element          582  has a negative Jacobian
 element          583  has a negative Jacobian
 element          584  has a negative Jacobian
 element          585  has a negative Jacobian
 element          586  has a negative Jacobian
 element          587  has a negative Jacobian
 element          588  has a negative Jacobian
 element          589  has a negative Jacobian
 element          590  has a negative Jacobian
 element          591  has a negative Jacobian
 element          592  has a negative Jacobian
 element          593  has a negative Jacobian
 element          594  has a negative Jacobian
 element          595  has a negative Jacobian
 element          596  has a negative Jacobian
 element          597  has a negative Jacobian
 element          598  has a negative Jacobian
 element          599  has a negative Jacobian
 element          600  has a negative Jacobian
 element          601  has a negative Jacobian
 element          602  has a negative Jacobian
 element          603  has a negative Jacobian
 element          604  has a negative Jacobian
 element          605  has a negative Jacobian
 element          606  has a negative Jacobian
 element          607  has a negative Jacobian
 element          608  has a negative Jacobian
 element          609  has a negative Jacobian
 element          610  has a negative Jacobian
 element          611  has a negative Jacobian
 element          612  has a negative Jacobian
 element          613  has a negative Jacobian
 element          614  has a negative Jacobian
 element          615  has a negative Jacobian
 element          616  has a negative Jacobian
 element          617  has a negative Jacobian
 element          618  has a negative Jacobian
 element          619  has a negative Jacobian
 element          620  has a negative Jacobian
 element          621  has a negative Jacobian
 element          622  has a negative Jacobian
 element          623  has a negative Jacobian
 element          624  has a negative Jacobian
 element          625  has a negative Jacobian
 element          626  has a negative Jacobian
 element          627  has a negative Jacobian
 element          628  has a negative Jacobian
 element          629  has a negative Jacobian
 element          630  has a negative Jacobian
 element          631  has a negative Jacobian
 element          632  has a negative Jacobian
 element          633  has a negative Jacobian
 element          634  has a negative Jacobian
 element          635  has a negative Jacobian
 element          636  has a negative Jacobian
 element          637  has a negative Jacobian
 element          638  has a negative Jacobian
 element          639  has a negative Jacobian
 element          640  has a negative Jacobian
 element          641  has a negative Jacobian
 element          642  has a negative Jacobian
 element          643  has a negative Jacobian
 element          644  has a negative Jacobian
 element          645  has a negative Jacobian
 element          646  has a negative Jacobian
 element          647  has a negative Jacobian
 element          648  has a negative Jacobian
 element          649  has a negative Jacobian
 element          650  has a negative Jacobian
 element          651  has a negative Jacobian
 element          652  has a negative Jacobian
 element          653  has a negative Jacobian
 element          654  has a negative Jacobian
 element          655  has a negative Jacobian
 element          656  has a negative Jacobian
 element          657  has a negative Jacobian
 element          658  has a negative Jacobian
 element          659  has a negative Jacobian
 element          660  has a negative Jacobian
 element          661  has a negative Jacobian
 element          662  has a negative Jacobian
 element          663  has a negative Jacobian
 element          664  has a negative Jacobian
 element          665  has a negative Jacobian
 element          666  has a negative Jacobian
 element          667  has a negative Jacobian
 element          668  has a negative Jacobian
 element          669  has a negative Jacobian
 element          670  has a negative Jacobian
 element          671  has a negative Jacobian
 element          672  has a negative Jacobian
 element          673  has a negative Jacobian
 element          674  has a negative Jacobian
 element          675  has a negative Jacobian
 element          676  has a negative Jacobian
 element          677  has a negative Jacobian
 element          678  has a negative Jacobian
 element          679  has a negative Jacobian
 element          680  has a negative Jacobian
 element          681  has a negative Jacobian
 element          682  has a negative Jacobian
 element          683  has a negative Jacobian
 element          684  has a negative Jacobian
 element          685  has a negative Jacobian
 element          686  has a negative Jacobian
 element          687  has a negative Jacobian
 element          688  has a negative Jacobian
 element          689  has a negative Jacobian
 element          690  has a negative Jacobian
 element          691  has a negative Jacobian
 element          692  has a negative Jacobian
 element          693  has a negative Jacobian
 element          694  has a negative Jacobian
 element          695  has a negative Jacobian
 element          696  has a negative Jacobian
 element          697  has a negative Jacobian
 element          698  has a negative Jacobian
 element          699  has a negative Jacobian
 element          700  has a negative Jacobian
 element          701  has a negative Jacobian
 element          702  has a negative Jacobian
 element          703  has a negative Jacobian
 element          704  has a negative Jacobian
 element          705  has a negative Jacobian
 element          706  has a negative Jacobian
 element          707  has a negative Jacobian
 element          708  has a negative Jacobian
 element          709  has a negative Jacobian
 element          710  has a negative Jacobian
 element          711  has a negative Jacobian
 element          712  has a negative Jacobian
 element          713  has a negative Jacobian
 element          714  has a negative Jacobian
 element          715  has a negative Jacobian
 element          716  has a negative Jacobian
 element          717  has a negative Jacobian
 element          718  has a negative Jacobian
 element          719  has a negative Jacobian
 element          720  has a negative Jacobian
 element          721  has a negative Jacobian
 element          722  has a negative Jacobian
 element          723  has a negative Jacobian
 element          724  has a negative Jacobian
 element          725  has a negative Jacobian
 element          726  has a negative Jacobian
 element          727  has a negative Jacobian
 element          728  has a negative Jacobian
 element          729  has a negative Jacobian
 element          730  has a negative Jacobian
 element          731  has a negative Jacobian
 element          732  has a negative Jacobian
 element          733  has a negative Jacobian
 element          734  has a negative Jacobian
 element          735  has a negative Jacobian
 element          736  has a negative Jacobian
 element          737  has a negative Jacobian
 element          738  has a negative Jacobian
 element          739  has a negative Jacobian
 element          740  has a negative Jacobian
 element          741  has a negative Jacobian
 element          742  has a negative Jacobian
 element          743  has a negative Jacobian
 element          744  has a negative Jacobian
 element          745  has a negative Jacobian
 element          746  has a negative Jacobian
 element          747  has a negative Jacobian
 element          748  has a negative Jacobian
 element          749  has a negative Jacobian
 element          750  has a negative Jacobian
 element          751  has a negative Jacobian
 element          752  has a negative Jacobian
 element          753  has a negative Jacobian
 element          754  has a negative Jacobian
 element          755  has a negative Jacobian
 element          756  has a negative Jacobian
 element          757  has a negative Jacobian
 element          758  has a negative Jacobian
 element          759  has a negative Jacobian
 element          760  has a negative Jacobian
 element          761  has a negative Jacobian
 element          762  has a negative Jacobian
 element          763  has a negative Jacobian
 element          764  has a negative Jacobian
 element          765  has a negative Jacobian
 element          766  has a negative Jacobian
 element          767  has a negative Jacobian
 element          768  has a negative Jacobian
 element          769  has a negative Jacobian
 element          770  has a negative Jacobian
 element          771  has a negative Jacobian
 element          772  has a negative Jacobian
 element          773  has a negative Jacobian
 element          774  has a negative Jacobian
 element          775  has a negative Jacobian
 element          776  has a negative Jacobian
 element          777  has a negative Jacobian
 element          778  has a negative Jacobian
 element          779  has a negative Jacobian
 element          780  has a negative Jacobian
 element          781  has a negative Jacobian
 element          782  has a negative Jacobian
 element          783  has a negative Jacobian
 element          784  has a negative Jacobian
 element          785  has a negative Jacobian
 element          786  has a negative Jacobian
 element          787  has a negative Jacobian
 element          788  has a negative Jacobian
 element          789  has a negative Jacobian
 element          790  has a negative Jacobian
 element          791  has a negative Jacobian
 element          792  has a negative Jacobian
 element          793  has a negative Jacobian
 element          794  has a negative Jacobian
 element          795  has a negative Jacobian
 element          796  has a negative Jacobian
 element          797  has a negative Jacobian
 element          798  has a negative Jacobian
 element          799  has a negative Jacobian
 element          800  has a negative Jacobian
 element          801  has a negative Jacobian
 element          802  has a negative Jacobian
 element          803  has a negative Jacobian
 element          804  has a negative Jacobian
 element          805  has a negative Jacobian
 element          806  has a negative Jacobian
 element          807  has a negative Jacobian
 element          808  has a negative Jacobian
 element          809  has a negative Jacobian
 element          810  has a negative Jacobian
 element          811  has a negative Jacobian
 element          812  has a negative Jacobian
 element          813  has a negative Jacobian
 element          814  has a negative Jacobian
 element          815  has a negative Jacobian
 element          816  has a negative Jacobian
 element          817  has a negative Jacobian
 element          818  has a negative Jacobian
 element          819  has a negative Jacobian
 element          820  has a negative Jacobian
 element          821  has a negative Jacobian
 element          822  has a negative Jacobian
 element          823  has a negative Jacobian
 element          824  has a negative Jacobian
 element          825  has a negative Jacobian
 element          826  has a negative Jacobian
 element          827  has a negative Jacobian
 element          828  has a negative Jacobian
 element          829  has a negative Jacobian
 element          830  has a negative Jacobian
 element          831  has a negative Jacobian
 element          832  has a negative Jacobian
 element          833  has a negative Jacobian
 element          834  has a negative Jacobian
 element          835  has a negative Jacobian
 element          836  has a negative Jacobian
 element          837  has a negative Jacobian
 element          838  has a negative Jacobian
 element          839  has a negative Jacobian
 element          840  has a negative Jacobian
 element          841  has a negative Jacobian
 element          842  has a negative Jacobian
 element          843  has a negative Jacobian
 element          844  has a negative Jacobian
 element          845  has a negative Jacobian
 element          846  has a negative Jacobian
 element          847  has a negative Jacobian
 element          848  has a negative Jacobian
 element          849  has a negative Jacobian
 element          850  has a negative Jacobian
 element          851  has a negative Jacobian
 element          852  has a negative Jacobian
 element          853  has a negative Jacobian
 element          854  has a negative Jacobian
 element          855  has a negative Jacobian
 element          856  has a negative Jacobian
 element          857  has a negative Jacobian
 element          858  has a negative Jacobian
 element          859  has a negative Jacobian
 element          860  has a negative Jacobian
 element          861  has a negative Jacobian
 element          862  has a negative Jacobian
 element          863  has a negative Jacobian
 element          864  has a negative Jacobian
 element          865  has a negative Jacobian
 element          866  has a negative Jacobian
 element          867  has a negative Jacobian
 element          868  has a negative Jacobian
 element          869  has a negative Jacobian
 element          870  has a negative Jacobian
 element          871  has a negative Jacobian
 element          872  has a negative Jacobian
 element          873  has a negative Jacobian
 element          874  has a negative Jacobian
 element          875  has a negative Jacobian
 element          876  has a negative Jacobian
 element          877  has a negative Jacobian
 element          878  has a negative Jacobian
 element          879  has a negative Jacobian
 element          880  has a negative Jacobian
 element          881  has a negative Jacobian
 element          882  has a negative Jacobian
 element          883  has a negative Jacobian
 element          884  has a negative Jacobian
 element          885  has a negative Jacobian
 element          886  has a negative Jacobian
 element          887  has a negative Jacobian
 element          888  has a negative Jacobian
 element          889  has a negative Jacobian
 element          890  has a negative Jacobian
 element          891  has a negative Jacobian
 element          892  has a negative Jacobian
 element          893  has a negative Jacobian
 element          894  has a negative Jacobian
 element          895  has a negative Jacobian
 element          896  has a negative Jacobian
 element          897  has a negative Jacobian
 element          898  has a negative Jacobian
 element          899  has a negative Jacobian
 element          900  has a negative Jacobian
 element          901  has a negative Jacobian
 element          902  has a negative Jacobian
 element          903  has a negative Jacobian
 element          904  has a negative Jacobian
 element          905  has a negative Jacobian
 element          906  has a negative Jacobian
 element          907  has a negative Jacobian
 element          908  has a negative Jacobian
 element          909  has a negative Jacobian
 element          910  has a negative Jacobian
 element          911  has a negative Jacobian
 element          912  has a negative Jacobian
 element          913  has a negative Jacobian
 element          914  has a negative Jacobian
 element          915  has a negative Jacobian
 element          916  has a negative Jacobian
 element          917  has a negative Jacobian
 element          918  has a negative Jacobian
 element          919  has a negative Jacobian
 element          920  has a negative Jacobian
 element          921  has a negative Jacobian
 element          922  has a negative Jacobian
 element          923  has a negative Jacobian
 element          924  has a negative Jacobian
 element          925  has a negative Jacobian
 element          926  has a negative Jacobian
 element          927  has a negative Jacobian
 element          928  has a negative Jacobian
 element          929  has a negative Jacobian
 element          930  has a negative Jacobian
 element          931  has a negative Jacobian
 element          932  has a negative Jacobian
 element          933  has a negative Jacobian
 element          934  has a negative Jacobian
 element          935  has a negative Jacobian
 element          936  has a negative Jacobian
 element          937  has a negative Jacobian
 element          938  has a negative Jacobian
 element          939  has a negative Jacobian
 element          940  has a negative Jacobian
 element          941  has a negative Jacobian
 element          942  has a negative Jacobian
 element          943  has a negative Jacobian
 element          944  has a negative Jacobian
 element          945  has a negative Jacobian
 element          946  has a negative Jacobian
 element          947  has a negative Jacobian
 element          948  has a negative Jacobian
 element          949  has a negative Jacobian
 element          950  has a negative Jacobian
 element          951  has a negative Jacobian
 element          952  has a negative Jacobian
 element          953  has a negative Jacobian
 element          954  has a negative Jacobian
 element          955  has a negative Jacobian
 element          956  has a negative Jacobian
 element          957  has a negative Jacobian
 element          958  has a negative Jacobian
 element          959  has a negative Jacobian
 element          960  has a negative Jacobian
 element          961  has a negative Jacobian
 element          962  has a negative Jacobian
 element          963  has a negative Jacobian
 element          964  has a negative Jacobian
 element          965  has a negative Jacobian
 element          966  has a negative Jacobian
 element          967  has a negative Jacobian
 element          968  has a negative Jacobian
 element          969  has a negative Jacobian
 element          970  has a negative Jacobian
 element          971  has a negative Jacobian
 element          972  has a negative Jacobian
 element          973  has a negative Jacobian
 element          974  has a negative Jacobian
 element          975  has a negative Jacobian
 element          976  has a negative Jacobian
 element          977  has a negative Jacobian
 element          978  has a negative Jacobian
 element          979  has a negative Jacobian
 element          980  has a negative Jacobian
 element          981  has a negative Jacobian
 element          982  has a negative Jacobian
 element          983  has a negative Jacobian
 element          984  has a negative Jacobian
 element          985  has a negative Jacobian
 element          986  has a negative Jacobian
 element          987  has a negative Jacobian
 element          988  has a negative Jacobian
 element          989  has a negative Jacobian
 element          990  has a negative Jacobian
 element          991  has a negative Jacobian
 element          992  has a negative Jacobian
 element          993  has a negative Jacobian
 element          994  has a negative Jacobian
 element          995  has a negative Jacobian
 element          996  has a negative Jacobian
 element          997  has a negative Jacobian
 element          998  has a negative Jacobian
 element          999  has a negative Jacobian
 element         1000  has a negative Jacobian
 element         1001  has a negative Jacobian
 element         1002  has a negative Jacobian
 element         1003  has a negative Jacobian
 element         1004  has a negative Jacobian
 element         1005  has a negative Jacobian
 element         1006  has a negative Jacobian
 element         1007  has a negative Jacobian
 element         1008  has a negative Jacobian
 element         1009  has a negative Jacobian
 element         1010  has a negative Jacobian
 element         1011  has a negative Jacobian
 element         1012  has a negative Jacobian
 element         1013  has a negative Jacobian
 element         1014  has a negative Jacobian
 element         1015  has a negative Jacobian
 element         1016  has a negative Jacobian
 element         1017  has a negative Jacobian
 element         1018  has a negative Jacobian
 element         1019  has a negative Jacobian
 element         1020  has a negative Jacobian
 element         1021  has a negative Jacobian
 element         1022  has a negative Jacobian
 element         1023  has a negative Jacobian
 element         1024  has a negative Jacobian
 element         1025  has a negative Jacobian
 element         1026  has a negative Jacobian
 element         1027  has a negative Jacobian
 element         1028  has a negative Jacobian
 element         1029  has a negative Jacobian
 element         1030  has a negative Jacobian
 element         1031  has a negative Jacobian
 element         1032  has a negative Jacobian
 element         1033  has a negative Jacobian
 element         1034  has a negative Jacobian
 element         1035  has a negative Jacobian
 element         1036  has a negative Jacobian
 element         1037  has a negative Jacobian
 element         1038  has a negative Jacobian
 element         1039  has a negative Jacobian
 element         1040  has a negative Jacobian
 element         1041  has a negative Jacobian
 element         1042  has a negative Jacobian
 element         1043  has a negative Jacobian
 element         1044  has a negative Jacobian
 element         1045  has a negative Jacobian
 element         1046  has a negative Jacobian
 element         1047  has a negative Jacobian
 element         1048  has a negative Jacobian
 element         1049  has a negative Jacobian
 element         1050  has a negative Jacobian
 element         1051  has a negative Jacobian
 element         1052  has a negative Jacobian
 element         1053  has a negative Jacobian
 element         1054  has a negative Jacobian
 element         1055  has a negative Jacobian
 element         1056  has a negative Jacobian
 element         1057  has a negative Jacobian
 element         1058  has a negative Jacobian
 element         1059  has a negative Jacobian
 element         1060  has a negative Jacobian
 element         1061  has a negative Jacobian
 element         1062  has a negative Jacobian
 element         1063  has a negative Jacobian
 element         1064  has a negative Jacobian
 element         1065  has a negative Jacobian
 element         1066  has a negative Jacobian
 element         1067  has a negative Jacobian
 element         1068  has a negative Jacobian
 element         1069  has a negative Jacobian
 element         1070  has a negative Jacobian
 element         1071  has a negative Jacobian
 element         1072  has a negative Jacobian
 element         1073  has a negative Jacobian
 element         1074  has a negative Jacobian
 element         1075  has a negative Jacobian
 element         1076  has a negative Jacobian
 element         1077  has a negative Jacobian
 element         1078  has a negative Jacobian
 element         1079  has a negative Jacobian
 element         1080  has a negative Jacobian
 element         1081  has a negative Jacobian
 element         1082  has a negative Jacobian
 element         1083  has a negative Jacobian
 element         1084  has a negative Jacobian
 element         1085  has a negative Jacobian
 element         1086  has a negative Jacobian
 element         1087  has a negative Jacobian
 element         1088  has a negative Jacobian
 element         1089  has a negative Jacobian
 element         1090  has a negative Jacobian
 element         1091  has a negative Jacobian
 element         1092  has a negative Jacobian
 element         1093  has a negative Jacobian
 element         1094  has a negative Jacobian
 element         1095  has a negative Jacobian
 element         1096  has a negative Jacobian
 element         1097  has a negative Jacobian
 element         1098  has a negative Jacobian
 element         1099  has a negative Jacobian
 element         1100  has a negative Jacobian
 element         1101  has a negative Jacobian
 element         1102  has a negative Jacobian
 element         1103  has a negative Jacobian
 element         1104  has a negative Jacobian
 element         1105  has a negative Jacobian
 element         1106  has a negative Jacobian
 element         1107  has a negative Jacobian
 element         1108  has a negative Jacobian
 element         1109  has a negative Jacobian
 element         1110  has a negative Jacobian
 element         1111  has a negative Jacobian
 element         1112  has a negative Jacobian
 element         1113  has a negative Jacobian
 element         1114  has a negative Jacobian
 element         1115  has a negative Jacobian
 element         1116  has a negative Jacobian
 element         1117  has a negative Jacobian
 element         1118  has a negative Jacobian
 element         1119  has a negative Jacobian
 element         1120  has a negative Jacobian
 element         1121  has a negative Jacobian
 element         1122  has a negative Jacobian
 element         1123  has a negative Jacobian
 element         1124  has a negative Jacobian
 element         1125  has a negative Jacobian
 element         1126  has a negative Jacobian
 element         1127  has a negative Jacobian
 element         1128  has a negative Jacobian
 element         1129  has a negative Jacobian
 element         1130  has a negative Jacobian
 element         1131  has a negative Jacobian
 element         1132  has a negative Jacobian
 element         1133  has a negative Jacobian
 element         1134  has a negative Jacobian
 element         1135  has a negative Jacobian
 element         1136  has a negative Jacobian
 element         1137  has a negative Jacobian
 element         1138  has a negative Jacobian
 element         1139  has a negative Jacobian
 element         1140  has a negative Jacobian
 element         1141  has a negative Jacobian
 element         1142  has a negative Jacobian
 element         1143  has a negative Jacobian
 element         1144  has a negative Jacobian
 element         1145  has a negative Jacobian
 element         1146  has a negative Jacobian
 element         1147  has a negative Jacobian
 element         1148  has a negative Jacobian
 element         1149  has a negative Jacobian
 element         1150  has a negative Jacobian
 element         1151  has a negative Jacobian
 element         1152  has a negative Jacobian
 element         1153  has a negative Jacobian
 element         1154  has a negative Jacobian
 element         1155  has a negative Jacobian
 element         1156  has a negative Jacobian
 element         1157  has a negative Jacobian
 element         1158  has a negative Jacobian
 element         1159  has a negative Jacobian
 element         1160  has a negative Jacobian
 element         1161  has a negative Jacobian
 element         1162  has a negative Jacobian
 element         1163  has a negative Jacobian
 element         1164  has a negative Jacobian
 element         1165  has a negative Jacobian
 element         1166  has a negative Jacobian
 element         1167  has a negative Jacobian
 element         1168  has a negative Jacobian
 element         1169  has a negative Jacobian
 element         1170  has a negative Jacobian
 element         1171  has a negative Jacobian
 element         1172  has a negative Jacobian
 element         1173  has a negative Jacobian
 element         1174  has a negative Jacobian
 element         1175  has a negative Jacobian
 element         1176  has a negative Jacobian
 element         1177  has a negative Jacobian
 element         1178  has a negative Jacobian
 element         1179  has a negative Jacobian
 element         1180  has a negative Jacobian
 element         1181  has a negative Jacobian
 element         1182  has a negative Jacobian
 element         1183  has a negative Jacobian
 element         1184  has a negative Jacobian
 element         1185  has a negative Jacobian
 element         1186  has a negative Jacobian
 element         1187  has a negative Jacobian
 element         1188  has a negative Jacobian
 element         1189  has a negative Jacobian
 element         1190  has a negative Jacobian
 element         1191  has a negative Jacobian
 element         1192  has a negative Jacobian
 element         1193  has a negative Jacobian
 element         1194  has a negative Jacobian
 element         1195  has a negative Jacobian
 element         1196  has a negative Jacobian
 element         1197  has a negative Jacobian
 element         1198  has a negative Jacobian
 element         1199  has a negative Jacobian
 element         1200  has a negative Jacobian
 element         1201  has a negative Jacobian
 element         1202  has a negative Jacobian
 element         1203  has a negative Jacobian
 element         1204  has a negative Jacobian
 element         1205  has a negative Jacobian
 element         1206  has a negative Jacobian
 element         1207  has a negative Jacobian
 element         1208  has a negative Jacobian
 element         1209  has a negative Jacobian
 element         1210  has a negative Jacobian
 element         1211  has a negative Jacobian
 element         1212  has a negative Jacobian
 element         1213  has a negative Jacobian
 element         1214  has a negative Jacobian
 element         1215  has a negative Jacobian
 element         1216  has a negative Jacobian
 element         1217  has a negative Jacobian
 element         1218  has a negative Jacobian
 element         1219  has a negative Jacobian
 element         1220  has a negative Jacobian
 element         1221  has a negative Jacobian
 element         1222  has a negative Jacobian
 element         1223  has a negative Jacobian
 element         1224  has a negative Jacobian
 element         1225  has a negative Jacobian
 element         1226  has a negative Jacobian
 element         1227  has a negative Jacobian
 element         1228  has a negative Jacobian
 element         1229  has a negative Jacobian
 element         1230  has a negative Jacobian
 element         1231  has a negative Jacobian
 element         1232  has a negative Jacobian
 element         1233  has a negative Jacobian
 element         1234  has a negative Jacobian
 element         1235  has a negative Jacobian
 element         1236  has a negative Jacobian
 element         1237  has a negative Jacobian
 element         1238  has a negative Jacobian
 element         1239  has a negative Jacobian
 element         1240  has a negative Jacobian
 element         1241  has a negative Jacobian
 element         1242  has a negative Jacobian
 element         1243  has a negative Jacobian
 element         1244  has a negative Jacobian
 element         1245  has a negative Jacobian
 element         1246  has a negative Jacobian
 element         1247  has a negative Jacobian
 element         1248  has a negative Jacobian
 element         1249  has a negative Jacobian
 element         1250  has a negative Jacobian
 element         1251  has a negative Jacobian
 element         1252  has a negative Jacobian
 element         1253  has a negative Jacobian
 element         1254  has a negative Jacobian
 element         1255  has a negative Jacobian
 element         1256  has a negative Jacobian
 element         1257  has a negative Jacobian
 element         1258  has a negative Jacobian
 element         1259  has a negative Jacobian
 element         1260  has a negative Jacobian
 element         1261  has a negative Jacobian
 element         1262  has a negative Jacobian
 element         1263  has a negative Jacobian
 element         1264  has a negative Jacobian
 element         1265  has a negative Jacobian
 element         1266  has a negative Jacobian
 element         1267  has a negative Jacobian
 element         1268  has a negative Jacobian
 element         1269  has a negative Jacobian
 element         1270  has a negative Jacobian
 element         1271  has a negative Jacobian
 element         1272  has a negative Jacobian
 element         1273  has a negative Jacobian
 element         1274  has a negative Jacobian
 element         1275  has a negative Jacobian
 element         1276  has a negative Jacobian
 element         1277  has a negative Jacobian
 element         1278  has a negative Jacobian
 element         1279  has a negative Jacobian
 element         1280  has a negative Jacobian
 element         1281  has a negative Jacobian
 element         1282  has a negative Jacobian
 element         1283  has a negative Jacobian
 element         1284  has a negative Jacobian
 element         1285  has a negative Jacobian
 element         1286  has a negative Jacobian
 element         1287  has a negative Jacobian
 element         1288  has a negative Jacobian
 element         1289  has a negative Jacobian
 element         1290  has a negative Jacobian
 element         1291  has a negative Jacobian
 element         1292  has a negative Jacobian
 element         1293  has a negative Jacobian
 element         1294  has a negative Jacobian
 element         1295  has a negative Jacobian
 element         1296  has a negative Jacobian
 element         1297  has a negative Jacobian
 element         1298  has a negative Jacobian
 element         1299  has a negative Jacobian
 element         1300  has a negative Jacobian
 element         1301  has a negative Jacobian
 element         1302  has a negative Jacobian
 element         1303  has a negative Jacobian
 element         1304  has a negative Jacobian
 element         1305  has a negative Jacobian
 element         1306  has a negative Jacobian
 element         1307  has a negative Jacobian
 element         1308  has a negative Jacobian
 element         1309  has a negative Jacobian
 element         1310  has a negative Jacobian
 element         1311  has a negative Jacobian
 element         1312  has a negative Jacobian
 element         1313  has a negative Jacobian
 element         1314  has a negative Jacobian
 element         1315  has a negative Jacobian
 element         1316  has a negative Jacobian
 element         1317  has a negative Jacobian
 element         1318  has a negative Jacobian
 element         1319  has a negative Jacobian
 element         1320  has a negative Jacobian
 element         1321  has a negative Jacobian
 element         1322  has a negative Jacobian
 element         1323  has a negative Jacobian
 element         1324  has a negative Jacobian
 element         1325  has a negative Jacobian
 element         1326  has a negative Jacobian
 element         1327  has a negative Jacobian
 element         1328  has a negative Jacobian
 element         1329  has a negative Jacobian
 element         1330  has a negative Jacobian
 element         1331  has a negative Jacobian
 element         1332  has a negative Jacobian
 element         1333  has a negative Jacobian
 element         1334  has a negative Jacobian
 element         1335  has a negative Jacobian
 element         1336  has a negative Jacobian
 element         1337  has a negative Jacobian
 element         1338  has a negative Jacobian
 element         1339  has a negative Jacobian
 element         1340  has a negative Jacobian
 element         1341  has a negative Jacobian
 element         1342  has a negative Jacobian
 element         1343  has a negative Jacobian
 element         1344  has a negative Jacobian
 element         1345  has a negative Jacobian
 element         1346  has a negative Jacobian
 element         1347  has a negative Jacobian
 element         1348  has a negative Jacobian
 element         1349  has a negative Jacobian
 element         1350  has a negative Jacobian
 element         1351  has a negative Jacobian
 element         1352  has a negative Jacobian
 element         1353  has a negative Jacobian
 element         1354  has a negative Jacobian
 element         1355  has a negative Jacobian
 element         1356  has a negative Jacobian
 element         1357  has a negative Jacobian
 element         1358  has a negative Jacobian
 element         1359  has a negative Jacobian
 element         1360  has a negative Jacobian
 element         1361  has a negative Jacobian
 element         1362  has a negative Jacobian
 element         1363  has a negative Jacobian
 element         1364  has a negative Jacobian
 element         1365  has a negative Jacobian
 element         1366  has a negative Jacobian
 element         1367  has a negative Jacobian
 element         1368  has a negative Jacobian
 element         1369  has a negative Jacobian
 element         1370  has a negative Jacobian
 element         1371  has a negative Jacobian
 element         1372  has a negative Jacobian
 element         1373  has a negative Jacobian
 element         1374  has a negative Jacobian
 element         1375  has a negative Jacobian
 element         1376  has a negative Jacobian
 element         1377  has a negative Jacobian
 element         1378  has a negative Jacobian
 element         1379  has a negative Jacobian
 element         1380  has a negative Jacobian
 element         1381  has a negative Jacobian
 element         1382  has a negative Jacobian
 element         1383  has a negative Jacobian
 element         1384  has a negative Jacobian
 element         1385  has a negative Jacobian
 element         1386  has a negative Jacobian
 element         1387  has a negative Jacobian
 element         1388  has a negative Jacobian
 element         1389  has a negative Jacobian
 element         1390  has a negative Jacobian
 element         1391  has a negative Jacobian
[...]
 element         4240  has a negative Jacobian
 element         4241  has a negative Jacobian
 element         4242  has a negative Jacobian
 element         4243  has a negative Jacobian
 element         4244  has a negative Jacobian
 element         4245  has a negative Jacobian
 element         4246  has a negative Jacobian
 element         4247  has a negative Jacobian
 element         4248  has a negative Jacobian
 element         4249  has a negative Jacobian
 element         4250  has a negative Jacobian
 element         4251  has a negative Jacobian
 element         4252  has a negative Jacobian
 element         4253  has a negative Jacobian
 element         4254  has a negative Jacobian
 element         4255  has a negative Jacobian
 element         4256  has a negative Jacobian
 element         4257  has a negative Jacobian
 element         4258  has a negative Jacobian
 element         4259  has a negative Jacobian
 element         4260  has a negative Jacobian
 element         4261  has a negative Jacobian
 element         4262  has a negative Jacobian
 element         4263  has a negative Jacobian
 element         4264  has a negative Jacobian
 element         4265  has a negative Jacobian
 element         4266  has a negative Jacobian
 element         4267  has a negative Jacobian
 element         4268  has a negative Jacobian
 element         4269  has a negative Jacobian
 element         4270  has a negative Jacobian
 element         4271  has a negative Jacobian
 element         4272  has a negative Jacobian
 element         4273  has a negative Jacobian
 element         4274  has a negative Jacobian
 element         4275  has a negative Jacobian
 element         4276  has a negative Jacobian
 element         4277  has a negative Jacobian
 element         4278  has a negative Jacobian
 element         4279  has a negative Jacobian
 element         4280  has a negative Jacobian
 element         4281  has a negative Jacobian
 element         4282  has a negative Jacobian
 element         4283  has a negative Jacobian
 element         4284  has a negative Jacobian
 element         4285  has a negative Jacobian
 element         4286  has a negative Jacobian
 element         4287  has a negative Jacobian
 element         4288  has a negative Jacobian
 element         4289  has a negative Jacobian
 element         4290  has a negative Jacobian
 element         4291  has a negative Jacobian
 element         4292  has a negative Jacobian
 element         4293  has a negative Jacobian
 element         4294  has a negative Jacobian
 element         4295  has a negative Jacobian
 element         4296  has a negative Jacobian
 element         4297  has a negative Jacobian
 element         4298  has a negative Jacobian
 element         4299  has a negative Jacobian
 element         4300  has a negative Jacobian
 element         4301  has a negative Jacobian
 element         4302  has a negative Jacobian
 element         4303  has a negative Jacobian
 element         4304  has a negative Jacobian
 element         4305  has a negative Jacobian
 element         4306  has a negative Jacobian
 element         4307  has a negative Jacobian
 element         4308  has a negative Jacobian
 element         4309  has a negative Jacobian
 element         4310  has a negative Jacobian
 element         4311  has a negative Jacobian
 element         4312  has a negative Jacobian
 element         4313  has a negative Jacobian
 element         4314  has a negative Jacobian
 element         4315  has a negative Jacobian
 element         4316  has a negative Jacobian
 element         4317  has a negative Jacobian
 element         4318  has a negative Jacobian
 element         4319  has a negative Jacobian
 element         4320  has a negative Jacobian
 element         4321  has a negative Jacobian
 element         4322  has a negative Jacobian
 element         4323  has a negative Jacobian
 element         4324  has a negative Jacobian
 element         4325  has a negative Jacobian
 element         4326  has a negative Jacobian
 element         4327  has a negative Jacobian
 element         4328  has a negative Jacobian
 element         4329  has a negative Jacobian
 element         4330  has a negative Jacobian
 element         4331  has a negative Jacobian
 element         4332  has a negative Jacobian
 element         4333  has a negative Jacobian
 element         4334  has a negative Jacobian
 element         4335  has a negative Jacobian
 element         4336  has a negative Jacobian
 element         4337  has a negative Jacobian
 element         4338  has a negative Jacobian
 element         4339  has a negative Jacobian
 element         4340  has a negative Jacobian
 element         4341  has a negative Jacobian
 element         4342  has a negative Jacobian
 element         4343  has a negative Jacobian
 element         4344  has a negative Jacobian
 element         4345  has a negative Jacobian
 element         4346  has a negative Jacobian
 element         4347  has a negative Jacobian
 element         4348  has a negative Jacobian
 element         4349  has a negative Jacobian
 element         4350  has a negative Jacobian
 element         4351  has a negative Jacobian
 element         4352  has a negative Jacobian
 element         4353  has a negative Jacobian
 element         4354  has a negative Jacobian
 element         4355  has a negative Jacobian
 element         4356  has a negative Jacobian
 element         4357  has a negative Jacobian
 element         4358  has a negative Jacobian
 element         4359  has a negative Jacobian
 element         4360  has a negative Jacobian
 element         4361  has a negative Jacobian
 element         4362  has a negative Jacobian
 element         4363  has a negative Jacobian
 element         4364  has a negative Jacobian
 element         4365  has a negative Jacobian
 element         4366  has a negative Jacobian
 element         4367  has a negative Jacobian
 element         4368  has a negative Jacobian
 element         4369  has a negative Jacobian
 element         4370  has a negative Jacobian
 element         4371  has a negative Jacobian
 element         4372  has a negative Jacobian
 element         4373  has a negative Jacobian
 element         4374  has a negative Jacobian
 element         4375  has a negative Jacobian
 element         4376  has a negative Jacobian
 element         4377  has a negative Jacobian
 element         4378  has a negative Jacobian
 element         4379  has a negative Jacobian
 element         4380  has a negative Jacobian
 element         4381  has a negative Jacobian
 element         4382  has a negative Jacobian
 element         4383  has a negative Jacobian
 element         4384  has a negative Jacobian
 element         4385  has a negative Jacobian
 element         4386  has a negative Jacobian
 element         4387  has a negative Jacobian
 element         4388  has a negative Jacobian
 element         4389  has a negative Jacobian
 element         4390  has a negative Jacobian
 element         4391  has a negative Jacobian
 element         4392  has a negative Jacobian
 element         4393  has a negative Jacobian
 element         4394  has a negative Jacobian
 element         4395  has a negative Jacobian
 element         4396  has a negative Jacobian
 element         4397  has a negative Jacobian
 element         4398  has a negative Jacobian
 element         4399  has a negative Jacobian
 element         4400  has a negative Jacobian
 element         4401  has a negative Jacobian
 element         4402  has a negative Jacobian
 element         4403  has a negative Jacobian
 element         4404  has a negative Jacobian
 element         4405  has a negative Jacobian
 element         4406  has a negative Jacobian
 element         4407  has a negative Jacobian
 element         4408  has a negative Jacobian
 element         4409  has a negative Jacobian
 element         4410  has a negative Jacobian
 element         4411  has a negative Jacobian
 element         4412  has a negative Jacobian
 element         4413  has a negative Jacobian
 element         4414  has a negative Jacobian
 element         4415  has a negative Jacobian
 element         4416  has a negative Jacobian
 element         4417  has a negative Jacobian
 element         4418  has a negative Jacobian
 element         4419  has a negative Jacobian
 element         4420  has a negative Jacobian
 element         4421  has a negative Jacobian
 element         4422  has a negative Jacobian
 element         4423  has a negative Jacobian
 element         4424  has a negative Jacobian
 element         4425  has a negative Jacobian
 element         4426  has a negative Jacobian
 element         4427  has a negative Jacobian
 element         4428  has a negative Jacobian
 element         4429  has a negative Jacobian
 element         4430  has a negative Jacobian
 element         4431  has a negative Jacobian
 element         4432  has a negative Jacobian
 element         4433  has a negative Jacobian
 element         4434  has a negative Jacobian
 element         4435  has a negative Jacobian
 element         4436  has a negative Jacobian
 element         4437  has a negative Jacobian
 element         4438  has a negative Jacobian
 element         4439  has a negative Jacobian
 element         4440  has a negative Jacobian
 element         4441  has a negative Jacobian
 element         4442  has a negative Jacobian
 element         4443  has a negative Jacobian
 element         4444  has a negative Jacobian
 element         4445  has a negative Jacobian
 element         4446  has a negative Jacobian
 element         4447  has a negative Jacobian
 element         4448  has a negative Jacobian
 element         4449  has a negative Jacobian
 element         4450  has a negative Jacobian
 element         4451  has a negative Jacobian
 element         4452  has a negative Jacobian
 element         4453  has a negative Jacobian
 element         4454  has a negative Jacobian
 element         4455  has a negative Jacobian
 element         4456  has a negative Jacobian
 element         4457  has a negative Jacobian
 element         4458  has a negative Jacobian
 element         4459  has a negative Jacobian
 element         4460  has a negative Jacobian
 element         4461  has a negative Jacobian
 element         4462  has a negative Jacobian
 element         4463  has a negative Jacobian
 element         4464  has a negative Jacobian
 element         4465  has a negative Jacobian
 element         4466  has a negative Jacobian
 element         4467  has a negative Jacobian
 element         4468  has a negative Jacobian
 element         4469  has a negative Jacobian
 element         4470  has a negative Jacobian
 element         4471  has a negative Jacobian
 element         4472  has a negative Jacobian
 element         4473  has a negative Jacobian
 element         4474  has a negative Jacobian
 element         4475  has a negative Jacobian
 element         4476  has a negative Jacobian
 element         4477  has a negative Jacobian
 element         4478  has a negative Jacobian
 element         4479  has a negative Jacobian
 element         4480  has a negative Jacobian
 element         4481  has a negative Jacobian
 element         4482  has a negative Jacobian
 element         4483  has a negative Jacobian
 element         4484  has a negative Jacobian
 element         4485  has a negative Jacobian
 element         4486  has a negative Jacobian
 element         4487  has a negative Jacobian
 element         4488  has a negative Jacobian
 element         4489  has a negative Jacobian
 element         4490  has a negative Jacobian
 element         4491  has a negative Jacobian
 element         4492  has a negative Jacobian
 element         4493  has a negative Jacobian
 element         4494  has a negative Jacobian
 element         4495  has a negative Jacobian
 element         4496  has a negative Jacobian
 element         4497  has a negative Jacobian
 element         4498  has a negative Jacobian
 element         4499  has a negative Jacobian
 element         4500  has a negative Jacobian
 element         4501  has a negative Jacobian
 element         4502  has a negative Jacobian
 element         4503  has a negative Jacobian
 element         4504  has a negative Jacobian
 element         4505  has a negative Jacobian
 element         4506  has a negative Jacobian
 element         4507  has a negative Jacobian
 element         4508  has a negative Jacobian
 element         4509  has a negative Jacobian
 element         4510  has a negative Jacobian
 element         4511  has a negative Jacobian
 element         4512  has a negative Jacobian
 element         4513  has a negative Jacobian
 element         4514  has a negative Jacobian
 element         4515  has a negative Jacobian
 element         4516  has a negative Jacobian
 element         4517  has a negative Jacobian
 element         4518  has a negative Jacobian
 element         4519  has a negative Jacobian
 element         4520  has a negative Jacobian
 element         4521  has a negative Jacobian
 element         4522  has a negative Jacobian
 element         4523  has a negative Jacobian
 element         4524  has a negative Jacobian
 element         4525  has a negative Jacobian
 element         4526  has a negative Jacobian
 element         4527  has a negative Jacobian
 element         4528  has a negative Jacobian
 element         4529  has a negative Jacobian
 element         4530  has a negative Jacobian
 element         4531  has a negative Jacobian
 element         4532  has a negative Jacobian
 element         4533  has a negative Jacobian
 element         4534  has a negative Jacobian
 element         4535  has a negative Jacobian
 element         4536  has a negative Jacobian
 element         4537  has a negative Jacobian
 element         4538  has a negative Jacobian
 element         4539  has a negative Jacobian
 element         4540  has a negative Jacobian
 element         4541  has a negative Jacobian
 element         4542  has a negative Jacobian
 element         4543  has a negative Jacobian
 element         4544  has a negative Jacobian
 element         4545  has a negative Jacobian
 element         4546  has a negative Jacobian
 element         4547  has a negative Jacobian
 element         4548  has a negative Jacobian
 element         4549  has a negative Jacobian
 element         4550  has a negative Jacobian
 element         4551  has a negative Jacobian
 element         4552  has a negative Jacobian
 element         4553  has a negative Jacobian
 element         4554  has a negative Jacobian
 element         4555  has a negative Jacobian
 element         4556  has a negative Jacobian
 element         4557  has a negative Jacobian
 element         4558  has a negative Jacobian
 element         4559  has a negative Jacobian
 element         4560  has a negative Jacobian
 element         4561  has a negative Jacobian
 element         4562  has a negative Jacobian
 element         4563  has a negative Jacobian
 element         4564  has a negative Jacobian
 element         4565  has a negative Jacobian
 element         4566  has a negative Jacobian
 element         4567  has a negative Jacobian
 element         4568  has a negative Jacobian
 element         4569  has a negative Jacobian
 element         4570  has a negative Jacobian
 element         4571  has a negative Jacobian
 element         4572  has a negative Jacobian
 element         4573  has a negative Jacobian
 element         4574  has a negative Jacobian
 element         4575  has a negative Jacobian
 element         4576  has a negative Jacobian
 element         4577  has a negative Jacobian
 element         4578  has a negative Jacobian
 element         4579  has a negative Jacobian
 element         4580  has a negative Jacobian
 element         4581  has a negative Jacobian
 element         4582  has a negative Jacobian
 element         4583  has a negative Jacobian
 element         4584  has a negative Jacobian
 element         4585  has a negative Jacobian
 element         4586  has a negative Jacobian
 element         4587  has a negative Jacobian
 element         4588  has a negative Jacobian
 element         4589  has a negative Jacobian
 element         4590  has a negative Jacobian
 element         4591  has a negative Jacobian
 element         4592  has a negative Jacobian
 element         4593  has a negative Jacobian
 element         4594  has a negative Jacobian
 element         4595  has a negative Jacobian
 element         4596  has a negative Jacobian
 element         4597  has a negative Jacobian
 element         4598  has a negative Jacobian
 element         4599  has a negative Jacobian
 element         4600  has a negative Jacobian
 element         4601  has a negative Jacobian
 element         4602  has a negative Jacobian
 element         4603  has a negative Jacobian
 element         4604  has a negative Jacobian
 element         4605  has a negative Jacobian
 element         4606  has a negative Jacobian
 element         4607  has a negative Jacobian
 element         4608  has a negative Jacobian
 element         4609  has a negative Jacobian
 element         4610  has a negative Jacobian
 element         4611  has a negative Jacobian
 element         4612  has a negative Jacobian
 element         4613  has a negative Jacobian
 element         4614  has a negative Jacobian
 element         4615  has a negative Jacobian
 element         4616  has a negative Jacobian
 element         4617  has a negative Jacobian
 element         4618  has a negative Jacobian
 element         4619  has a negative Jacobian
 element         4620  has a negative Jacobian
 element         4621  has a negative Jacobian
 element         4622  has a negative Jacobian
 element         4623  has a negative Jacobian
 element         4624  has a negative Jacobian
 element         4625  has a negative Jacobian
 element         4626  has a negative Jacobian
 element         4627  has a negative Jacobian
 element         4628  has a negative Jacobian
 element         4629  has a negative Jacobian
 element         4630  has a negative Jacobian
 element         4631  has a negative Jacobian
 element         4632  has a negative Jacobian
 element         4633  has a negative Jacobian
 element         4634  has a negative Jacobian
 element         4635  has a negative Jacobian
 element         4636  has a negative Jacobian
 element         4637  has a negative Jacobian
 element         4638  has a negative Jacobian
 element         4639  has a negative Jacobian
 element         4640  has a negative Jacobian
 element         4641  has a negative Jacobian
 element         4642  has a negative Jacobian
 element         4643  has a negative Jacobian
 element         4644  has a negative Jacobian
 element         4645  has a negative Jacobian
 element         4646  has a negative Jacobian
 element         4647  has a negative Jacobian
 element         4648  has a negative Jacobian
 element         4649  has a negative Jacobian
 element         4650  has a negative Jacobian
 element         4651  has a negative Jacobian
 element         4652  has a negative Jacobian
 element         4653  has a negative Jacobian
 element         4654  has a negative Jacobian
 element         4655  has a negative Jacobian
 element         4656  has a negative Jacobian
 element         4657  has a negative Jacobian
 element         4658  has a negative Jacobian
 element         4659  has a negative Jacobian
 element         4660  has a negative Jacobian
 element         4661  has a negative Jacobian
 element         4662  has a negative Jacobian
 element         4663  has a negative Jacobian
 element         4664  has a negative Jacobian
